Version 4.1
SHEET 1 1796 852
WIRE 112 -48 -208 -48
WIRE 256 -48 192 -48
WIRE 512 -48 368 -48
WIRE 784 -48 592 -48
WIRE 944 -32 944 -48
WIRE 112 16 -48 16
WIRE -208 32 -208 -48
WIRE 368 32 368 -48
WIRE 384 32 368 32
WIRE 480 32 464 32
WIRE 688 32 656 32
WIRE 784 32 784 -48
WIRE 784 32 752 32
WIRE 112 64 112 16
WIRE -48 112 -48 16
WIRE 368 176 368 32
WIRE 384 176 368 176
WIRE 720 176 720 160
WIRE 944 176 944 48
WIRE 1072 176 944 176
WIRE 480 192 480 32
WIRE 480 192 448 192
WIRE 512 192 480 192
WIRE 528 192 512 192
WIRE 544 192 528 192
WIRE 656 192 656 32
WIRE 656 192 624 192
WIRE 688 192 656 192
WIRE 944 192 944 176
WIRE 1184 192 1136 192
WIRE 1264 192 1184 192
WIRE 1280 192 1264 192
WIRE 112 208 112 144
WIRE 208 208 112 208
WIRE 256 208 256 -48
WIRE 256 208 208 208
WIRE 384 208 256 208
WIRE 784 208 784 32
WIRE 784 208 752 208
WIRE 800 208 784 208
WIRE 816 208 800 208
WIRE 832 208 816 208
WIRE 1040 208 912 208
WIRE 1072 208 1040 208
WIRE 1792 208 1696 208
WIRE 688 224 656 224
WIRE -48 240 -48 192
WIRE -48 240 -80 240
WIRE -80 256 -80 240
WIRE -48 256 -48 240
WIRE 112 256 112 208
WIRE 512 272 512 192
WIRE 576 272 512 272
WIRE 656 272 656 224
WIRE 1792 272 1696 272
WIRE 576 288 576 272
WIRE 944 288 944 272
WIRE 1040 320 1040 208
WIRE 1072 320 1040 320
WIRE 1184 320 1184 192
WIRE 1184 320 1152 320
WIRE 1792 336 1696 336
WIRE -48 384 -48 336
WIRE 112 384 112 336
WIRE 112 384 -48 384
WIRE 208 384 208 208
WIRE 656 384 656 352
WIRE 656 384 208 384
WIRE 944 384 944 368
WIRE 1792 416 1696 416
WIRE 576 432 576 368
WIRE 528 496 512 496
WIRE 656 496 624 496
WIRE 1184 512 1152 512
WIRE 512 544 512 496
WIRE 528 544 512 544
WIRE 656 544 656 496
WIRE 656 544 592 544
WIRE 1072 608 1072 512
WIRE 1184 608 1184 512
WIRE 1184 608 1136 608
WIRE 336 656 272 656
WIRE 512 656 512 544
WIRE 512 656 416 656
WIRE 528 656 512 656
WIRE 656 672 656 544
WIRE 656 672 592 672
WIRE 704 672 656 672
WIRE 528 688 496 688
WIRE 800 688 800 208
WIRE 832 688 800 688
WIRE 1072 688 1072 608
WIRE 1072 688 912 688
WIRE 1088 688 1072 688
WIRE 1184 704 1184 608
WIRE 1184 704 1152 704
WIRE 1264 704 1184 704
WIRE 1344 704 1264 704
WIRE 496 720 496 688
WIRE 1088 720 1072 720
WIRE 1072 768 1072 720
FLAG -80 256 0
FLAG -48 112 Ub+
FLAG 416 160 Ub-
FLAG 720 160 Ub+
FLAG 416 224 Ub+
FLAG 720 240 Ub-
FLAG 944 -48 Ub+
FLAG 1104 160 Ub+
FLAG 1104 224 Ub-
FLAG 944 384 Ub-
FLAG -48 384 Ub-
FLAG -208 112 0
FLAG 1120 672 Ub+
FLAG 1120 736 Ub-
FLAG 1072 768 0
FLAG 560 640 Ub+
FLAG 560 704 Ub-
FLAG 496 720 0
FLAG 272 656 Ub+
FLAG 528 192 Rechteck
FLAG 1696 208 Rechteck
FLAG 816 208 Dreieck
FLAG 1696 272 Dreieck
FLAG 1264 192 PWM
FLAG 1696 336 PWM
FLAG 1264 704 Sinus
FLAG 1696 416 Sinus
SYMBOL voltage -48 96 R0
SYMATTR InstName V1
SYMATTR Value 9
SYMBOL voltage -48 240 R0
SYMATTR InstName V2
SYMATTR Value 9
SYMBOL res 208 -64 R90
WINDOW 0 0 56 VBottom 2
WINDOW 3 32 56 VTop 2
SYMATTR InstName R1
SYMATTR Value 10k
SYMBOL res 640 176 R90
WINDOW 0 0 56 VBottom 2
WINDOW 3 32 56 VTop 2
SYMATTR InstName R2
SYMATTR Value 10k
SYMBOL cap 752 16 R90
WINDOW 0 0 32 VBottom 2
WINDOW 3 32 32 VTop 2
SYMATTR InstName C1
SYMATTR Value 0.8µ
SYMBOL res 480 16 R90
WINDOW 0 0 56 VBottom 2
WINDOW 3 32 56 VTop 2
SYMATTR InstName R4
SYMATTR Value 12k
SYMBOL res 640 256 R0
SYMATTR InstName R5
SYMATTR Value 100k
SYMBOL res 608 -64 R90
WINDOW 0 0 56 VBottom 2
WINDOW 3 32 56 VTop 2
SYMATTR InstName R6
SYMATTR Value 11k
SYMBOL res 96 48 R0
SYMATTR InstName R7
SYMATTR Value 1k
SYMBOL res 96 240 R0
SYMATTR InstName R8
SYMATTR Value 1k
SYMBOL res 928 192 R90
WINDOW 0 0 56 VBottom 2
WINDOW 3 32 56 VTop 2
SYMATTR InstName R3
SYMATTR Value 33k
SYMBOL res 1168 304 R90
WINDOW 0 0 56 VBottom 2
WINDOW 3 32 56 VTop 2
SYMATTR InstName R9
SYMATTR Value 1000k
SYMBOL res 928 -48 R0
SYMATTR InstName R10
SYMATTR Value 2.7k
SYMBOL res 928 272 R0
SYMATTR InstName R11
SYMATTR Value 2.7k
SYMBOL OpAmps\\UniversalOpAmp2 1104 192 R0
SYMATTR InstName U1
SYMATTR Value2 Avol=1Meg GBW=4.5Meg Slew=13000
SYMBOL voltage -208 16 R0
WINDOW 123 0 0 Left 0
WINDOW 39 0 0 Left 0
SYMATTR InstName V3
SYMATTR Value PULSE(0 1 0.1 0.0001 0.0001 0.01 10 1)
SYMBOL OpAmps\\UniversalOpAmp3 720 208 R0
SYMATTR InstName U2
SYMATTR Value2 Avol=1Meg GBW=4.5Meg Slew=13000
SYMBOL OpAmps\\UniversalOpAmp3 416 192 M180
SYMATTR InstName U3
SYMATTR Value2 Avol=1Meg GBW=4.5Meg Slew=13000
SYMBOL res 928 672 R90
WINDOW 0 0 56 VBottom 2
WINDOW 3 32 56 VTop 2
SYMATTR InstName R12
SYMATTR Value 11k
SYMBOL cap 1136 592 R90
WINDOW 0 0 32 VBottom 2
WINDOW 3 32 32 VTop 2
SYMATTR InstName C2
SYMATTR Value 0.4µ
SYMBOL res 1168 496 R90
WINDOW 0 0 56 VBottom 2
WINDOW 3 32 56 VTop 2
SYMATTR InstName R13
SYMATTR Value 10Meg
SYMBOL res 928 176 R0
SYMATTR InstName R14
SYMATTR Value 1k
SYMBOL res 1440 0 R90
WINDOW 0 0 56 VBottom 2
WINDOW 3 32 56 VTop 2
SYMATTR InstName R15
SYMATTR Value 100
SYMBOL diode 1424 32 R270
WINDOW 0 32 32 VTop 2
WINDOW 3 0 32 VBottom 2
SYMATTR InstName D1
SYMBOL OpAmps\\ADTL082 1120 640 R0
SYMATTR InstName U5
SYMBOL OpAmps\\UniversalOpAmp2 560 672 R0
SYMATTR InstName U4
SYMATTR Value2 Avol=1Meg GBW=4.5Meg Slew=13000
SYMBOL res 432 640 R90
WINDOW 0 0 56 VBottom 2
WINDOW 3 43 54 VTop 2
SYMATTR InstName R18
SYMATTR Value 10k
SYMBOL cap 592 528 R90
WINDOW 0 0 32 VBottom 2
WINDOW 3 32 32 VTop 2
SYMATTR InstName C3
SYMATTR Value 3µ
SYMBOL npn 624 432 R90
SYMATTR InstName Q1
SYMBOL res 560 272 R0
SYMATTR InstName R16
SYMATTR Value 1k
TEXT 280 328 Left 2 !.tran 0 3s 0 0.0001 startup
TEXT 256 448 Left 2 !.inc opamp.sub
