Version 4.1
SHEET 1 1796 1076
WIRE 784 -448 544 -448
WIRE 544 -336 544 -448
WIRE 784 -336 784 -448
WIRE 688 -256 608 -256
WIRE 912 -256 880 -256
WIRE 544 -192 544 -256
WIRE 688 -192 544 -192
WIRE -176 -48 -496 -48
WIRE 320 -48 80 -48
WIRE 784 -48 400 -48
WIRE 944 -32 944 -48
WIRE 912 0 912 -256
WIRE 912 0 512 0
WIRE -176 16 -336 16
WIRE -496 32 -496 -48
WIRE 80 32 80 -48
WIRE 96 32 80 32
WIRE 288 32 256 32
WIRE 688 32 656 32
WIRE 784 32 784 -48
WIRE 784 32 752 32
WIRE -176 64 -176 16
WIRE 512 64 512 0
WIRE 512 64 480 64
WIRE 624 96 624 80
WIRE -336 112 -336 16
WIRE 80 176 80 32
WIRE 96 176 80 176
WIRE 720 176 720 160
WIRE 944 176 944 48
WIRE 1072 176 944 176
WIRE 160 192 144 192
WIRE 288 192 288 32
WIRE 288 192 160 192
WIRE 336 192 336 64
WIRE 336 192 288 192
WIRE 352 192 336 192
WIRE 608 192 608 -256
WIRE 608 192 432 192
WIRE 656 192 656 32
WIRE 656 192 608 192
WIRE 688 192 656 192
WIRE 944 192 944 176
WIRE 1184 192 1136 192
WIRE 1264 192 1184 192
WIRE 1280 192 1264 192
WIRE -176 208 -176 144
WIRE -96 208 -96 -48
WIRE -96 208 -176 208
WIRE -48 208 -96 208
WIRE 96 208 32 208
WIRE 784 208 784 32
WIRE 784 208 752 208
WIRE 800 208 784 208
WIRE 816 208 800 208
WIRE 832 208 816 208
WIRE 1040 208 912 208
WIRE 1072 208 1040 208
WIRE 1792 208 1696 208
WIRE 624 224 624 176
WIRE 688 224 624 224
WIRE -336 240 -336 192
WIRE -336 240 -368 240
WIRE -368 256 -368 240
WIRE -336 256 -336 240
WIRE -176 256 -176 208
WIRE 624 272 624 224
WIRE 1792 272 1696 272
WIRE 944 288 944 272
WIRE 1040 320 1040 208
WIRE 1072 320 1040 320
WIRE 1184 320 1184 192
WIRE 1184 320 1152 320
WIRE 1792 336 1696 336
WIRE -336 384 -336 336
WIRE -176 384 -176 336
WIRE -176 384 -336 384
WIRE 944 384 944 368
WIRE 1792 416 1696 416
WIRE 1184 512 1152 512
WIRE 1072 608 1072 512
WIRE 1184 608 1184 512
WIRE 1184 608 1136 608
WIRE 800 688 800 208
WIRE 832 688 800 688
WIRE 1072 688 1072 608
WIRE 1072 688 912 688
WIRE 1088 688 1072 688
WIRE 1184 704 1184 608
WIRE 1184 704 1152 704
WIRE 1264 704 1184 704
WIRE 1344 704 1264 704
WIRE 1088 720 1072 720
WIRE 416 752 400 752
WIRE 544 752 512 752
WIRE 1072 768 1072 720
WIRE 400 800 400 752
WIRE 416 800 400 800
WIRE 544 800 544 752
WIRE 544 800 480 800
WIRE 224 912 160 912
WIRE 400 912 400 800
WIRE 400 912 304 912
WIRE 416 912 400 912
WIRE 544 928 544 800
WIRE 544 928 480 928
WIRE 592 928 544 928
WIRE 416 944 384 944
WIRE 384 976 384 944
FLAG -368 256 0
FLAG -336 112 Ub+
FLAG 128 160 Ub-
FLAG 720 160 Ub+
FLAG 128 224 Ub+
FLAG 720 240 Ub-
FLAG 944 -48 Ub+
FLAG 1104 160 Ub+
FLAG 1104 224 Ub-
FLAG 944 384 Ub-
FLAG -336 384 Ub-
FLAG -496 112 0
FLAG 1120 672 Ub+
FLAG 1120 736 Ub-
FLAG 1072 768 0
FLAG 448 960 Ub+
FLAG 448 896 Ub-
FLAG 160 912 Ub+
FLAG 336 192 Rechteck
FLAG 1696 208 Rechteck
FLAG 816 208 Dreieck
FLAG 1696 272 Dreieck
FLAG 1264 192 PWM
FLAG 1696 336 PWM
FLAG 1264 704 Sinus
FLAG 1696 416 Sinus
FLAG 384 864 Ub+
FLAG 384 1056 0
FLAG 624 16 Ub+
FLAG 624 352 Ub-
FLAG 544 -448 Ub+
FLAG 848 -80 0
FLAG 720 -80 Ub-
SYMBOL voltage -336 96 R0
SYMATTR InstName V1
SYMATTR Value 9
SYMBOL voltage -336 240 R0
SYMATTR InstName V2
SYMATTR Value 9
SYMBOL res -80 -64 R90
WINDOW 0 0 56 VBottom 2
WINDOW 3 32 56 VTop 2
SYMATTR InstName R1
SYMATTR Value 10k
SYMBOL res 448 176 R90
WINDOW 0 0 56 VBottom 2
WINDOW 3 32 56 VTop 2
SYMATTR InstName R2
SYMATTR Value 1k
SYMBOL cap 752 16 R90
WINDOW 0 0 32 VBottom 2
WINDOW 3 32 32 VTop 2
SYMATTR InstName C1
SYMATTR Value 1n
SYMBOL res 192 16 R90
WINDOW 0 0 56 VBottom 2
WINDOW 3 32 56 VTop 2
SYMATTR InstName R4
SYMATTR Value 12k
SYMBOL res 608 256 R0
SYMATTR InstName R5
SYMATTR Value 3k
SYMBOL res 416 -64 R90
WINDOW 0 0 56 VBottom 2
WINDOW 3 32 56 VTop 2
SYMATTR InstName R6
SYMATTR Value 11k
SYMBOL res -192 48 R0
SYMATTR InstName R7
SYMATTR Value 1k
SYMBOL res -192 240 R0
SYMATTR InstName R8
SYMATTR Value 1k
SYMBOL res 928 192 R90
WINDOW 0 0 56 VBottom 2
WINDOW 3 32 56 VTop 2
SYMATTR InstName R3
SYMATTR Value 1k
SYMBOL res 1168 304 R90
WINDOW 0 0 56 VBottom 2
WINDOW 3 32 56 VTop 2
SYMATTR InstName R9
SYMATTR Value 1000k
SYMBOL res 928 -48 R0
SYMATTR InstName R10
SYMATTR Value 2.7k
SYMBOL res 928 272 R0
SYMATTR InstName R11
SYMATTR Value 2.7k
SYMBOL voltage -496 16 R0
WINDOW 123 0 0 Left 0
WINDOW 39 0 0 Left 0
SYMATTR InstName V3
SYMATTR Value PULSE(0 1 0.1 0.0001 0.0001 0.01 10 1)
SYMBOL res 928 672 R90
WINDOW 0 0 56 VBottom 2
WINDOW 3 32 56 VTop 2
SYMATTR InstName R12
SYMATTR Value 11k
SYMBOL cap 1136 592 R90
WINDOW 0 0 32 VBottom 2
WINDOW 3 32 32 VTop 2
SYMATTR InstName C2
SYMATTR Value 0.4µ
SYMBOL res 1168 496 R90
WINDOW 0 0 56 VBottom 2
WINDOW 3 32 56 VTop 2
SYMATTR InstName R13
SYMATTR Value 10Meg
SYMBOL res 928 176 R0
SYMATTR InstName R14
SYMATTR Value 5k
SYMBOL res 432 48 R90
WINDOW 0 0 56 VBottom 2
WINDOW 3 32 56 VTop 2
SYMATTR InstName R15
SYMATTR Value 100
SYMBOL diode 416 80 R270
WINDOW 0 32 32 VTop 2
WINDOW 3 0 32 VBottom 2
SYMATTR InstName D1
SYMBOL OpAmps\\ADTL082 1120 640 R0
SYMATTR InstName U5
SYMBOL OpAmps\\UniversalOpAmp2 448 928 R0
SYMATTR InstName U4
SYMATTR Value2 Avol=1Meg GBW=4.5Meg Slew=13000
SYMBOL res 320 896 R90
WINDOW 0 0 56 VBottom 2
WINDOW 3 43 54 VTop 2
SYMATTR InstName R18
SYMATTR Value 10k
SYMBOL cap 480 784 R90
WINDOW 0 0 32 VBottom 2
WINDOW 3 32 32 VTop 2
SYMATTR InstName C3
SYMATTR Value 3µ
SYMBOL npn 512 688 R90
SYMATTR InstName Q1
SYMBOL res 368 960 R0
SYMATTR InstName R17
SYMATTR Value 1k
SYMBOL res 368 848 R0
SYMATTR InstName R19
SYMATTR Value 1k
SYMBOL res 608 80 R0
SYMATTR InstName R16
SYMATTR Value 0
SYMBOL res 608 0 R0
SYMATTR InstName R20
SYMATTR Value 1k
SYMBOL npn 496 -80 R180
SYMATTR InstName Q2
SYMBOL res 272 16 R90
WINDOW 0 0 56 VBottom 2
WINDOW 3 32 56 VTop 2
SYMATTR InstName R21
SYMATTR Value 0
SYMBOL res 48 192 R90
WINDOW 0 0 56 VBottom 2
WINDOW 3 32 56 VTop 2
SYMATTR InstName R22
SYMATTR Value 10k
SYMBOL OpAmps\\LT1361 128 256 M180
SYMATTR InstName U6
SYMBOL OpAmps\\LT1361 720 144 R0
SYMATTR InstName U7
SYMBOL OpAmps\\LT1361 1104 128 R0
SYMATTR InstName U8
SYMBOL OpAmps\\LT1355 1264 -112 R0
SYMATTR InstName U9
SYMBOL OpAmps\\LT1355 1408 -96 R0
SYMATTR InstName U10
SYMBOL OpAmps\\LT1355 1552 -96 R0
SYMATTR InstName U11
SYMBOL res 528 -352 R0
SYMATTR InstName R23
SYMATTR Value 100
SYMBOL zener 432 0 M90
WINDOW 0 -4 32 VBottom 2
WINDOW 3 36 32 VTop 2
SYMATTR InstName D2
SYMBOL Switches\\ADG2412 784 -208 R0
SYMATTR InstName U1
TEXT 88 328 Left 2 !.tran 0 10ms 0 0.0001 startup
TEXT 144 704 Left 2 !.inc opamp.sub
TEXT 592 368 Left 2 ;PWM geht auch hierrüber
TEXT 296 536 Left 2 ;.step param rx 1k 10k 1k
