Version 4.1
SHEET 1 2364 1076
WIRE -176 -48 -496 -48
WIRE 320 -48 80 -48
WIRE 784 -48 400 -48
WIRE 1136 -32 1136 -48
WIRE -176 16 -336 16
WIRE -496 32 -496 -48
WIRE 80 32 80 -48
WIRE 96 32 80 32
WIRE 288 32 176 32
WIRE 688 32 656 32
WIRE 784 32 784 -48
WIRE 784 32 752 32
WIRE -176 64 -176 16
WIRE 512 64 480 64
WIRE -336 112 -336 16
WIRE 1008 144 912 144
WIRE 80 176 80 32
WIRE 96 176 80 176
WIRE 720 176 720 160
WIRE 1136 176 1136 48
WIRE 1264 176 1136 176
WIRE 160 192 144 192
WIRE 288 192 288 32
WIRE 288 192 160 192
WIRE 336 192 336 64
WIRE 336 192 288 192
WIRE 352 192 336 192
WIRE 656 192 656 32
WIRE 656 192 512 192
WIRE 688 192 656 192
WIRE 912 192 912 144
WIRE 944 192 912 192
WIRE 1136 192 1136 176
WIRE 1376 192 1328 192
WIRE 1456 192 1376 192
WIRE 1472 192 1456 192
WIRE -176 208 -176 144
WIRE -96 208 -96 -48
WIRE -96 208 -176 208
WIRE -48 208 -96 208
WIRE 96 208 32 208
WIRE 784 208 784 32
WIRE 784 208 752 208
WIRE 800 208 784 208
WIRE 816 208 800 208
WIRE 896 208 816 208
WIRE 1008 208 1008 144
WIRE 1024 208 1008 208
WIRE 1232 208 1104 208
WIRE 1264 208 1232 208
WIRE 1984 208 1888 208
WIRE 624 224 624 96
WIRE 688 224 624 224
WIRE 896 224 896 208
WIRE 944 224 896 224
WIRE -336 240 -336 192
WIRE -336 240 -368 240
WIRE -368 256 -368 240
WIRE -336 256 -336 240
WIRE -176 256 -176 208
WIRE 624 272 624 224
WIRE 1984 272 1888 272
WIRE 1136 288 1136 272
WIRE 1232 320 1232 208
WIRE 1264 320 1232 320
WIRE 1376 320 1376 192
WIRE 1376 320 1344 320
WIRE 1984 336 1888 336
WIRE -336 384 -336 336
WIRE -176 384 -176 336
WIRE -176 384 -336 384
WIRE 1136 384 1136 368
WIRE 1984 416 1888 416
WIRE 1024 448 912 448
WIRE 912 512 912 448
WIRE 944 512 912 512
WIRE 1024 528 1024 448
WIRE 1024 528 1008 528
WIRE 1152 528 1024 528
WIRE 800 544 800 208
WIRE 944 544 800 544
WIRE 1536 592 1504 592
WIRE 1984 656 1936 656
WIRE 2096 656 2064 656
WIRE 1424 688 1424 592
WIRE 1536 688 1536 592
WIRE 1536 688 1488 688
WIRE 416 752 400 752
WIRE 544 752 512 752
WIRE 1152 768 1152 528
WIRE 1184 768 1152 768
WIRE 1424 768 1424 688
WIRE 1424 768 1264 768
WIRE 1440 768 1424 768
WIRE 1536 784 1536 688
WIRE 1536 784 1504 784
WIRE 1616 784 1536 784
WIRE 1840 784 1616 784
WIRE 1936 784 1936 656
WIRE 1968 784 1936 784
WIRE 400 800 400 752
WIRE 416 800 400 800
WIRE 544 800 544 752
WIRE 544 800 480 800
WIRE 1440 800 1424 800
WIRE 2096 800 2096 656
WIRE 2096 800 2032 800
WIRE 1840 816 1840 784
WIRE 1968 816 1840 816
WIRE 1424 848 1424 800
WIRE 224 912 160 912
WIRE 400 912 400 800
WIRE 400 912 304 912
WIRE 416 912 400 912
WIRE 544 928 544 800
WIRE 544 928 480 928
WIRE 592 928 544 928
WIRE 416 944 384 944
WIRE 384 976 384 944
FLAG -368 256 0
FLAG -336 112 Ub+
FLAG 128 160 Ub-
FLAG 720 160 Ub+
FLAG 128 224 Ub+
FLAG 720 240 Ub-
FLAG 1136 -48 Ub+
FLAG 1296 160 Ub+
FLAG 1296 224 Ub-
FLAG 1136 384 Ub-
FLAG -336 384 Ub-
FLAG -496 112 0
FLAG 1472 752 Ub+
FLAG 1472 816 Ub-
FLAG 448 960 Ub+
FLAG 448 896 Ub-
FLAG 160 912 Ub+
FLAG 336 192 Rechteck
FLAG 1888 208 Rechteck
FLAG 816 208 Dreieck
FLAG 1888 272 Dreieck
FLAG 1456 192 PWM
FLAG 1888 336 PWM
FLAG 1616 784 Sinus
FLAG 1888 416 Sinus
FLAG 384 864 Ub+
FLAG 384 1056 0
FLAG 624 16 Ub+
FLAG 624 352 Ub-
FLAG -896 -320 0
FLAG -896 112 0
FLAG -1024 -576 Ub+
FLAG -1024 -144 Ub+
FLAG 1424 848 0
FLAG 2000 768 Ub+
FLAG 2000 832 Ub-
FLAG 1936 864 0
FLAG 976 496 Ub+
FLAG 976 560 Ub-
FLAG 976 176 Ub+
FLAG 976 240 Ub-
SYMBOL voltage -336 96 R0
SYMATTR InstName V1
SYMATTR Value 9
SYMBOL voltage -336 240 R0
SYMATTR InstName V2
SYMATTR Value 9
SYMBOL res -80 -64 R90
WINDOW 0 0 56 VBottom 2
WINDOW 3 32 56 VTop 2
SYMATTR InstName R1
SYMATTR Value 10k
SYMBOL res 448 176 R90
WINDOW 0 0 56 VBottom 2
WINDOW 3 32 56 VTop 2
SYMATTR InstName R2
SYMATTR Value 220
SYMBOL cap 752 16 R90
WINDOW 0 0 32 VBottom 2
WINDOW 3 32 32 VTop 2
SYMATTR InstName C1
SYMATTR Value 1n
SYMBOL res 192 16 R90
WINDOW 0 0 56 VBottom 2
WINDOW 3 32 56 VTop 2
SYMATTR InstName R4
SYMATTR Value 10k
SYMBOL res 608 256 R0
SYMATTR InstName R5
SYMATTR Value 3k
SYMBOL res 416 -64 R90
WINDOW 0 0 56 VBottom 2
WINDOW 3 32 56 VTop 2
SYMATTR InstName R6
SYMATTR Value 10k
SYMBOL res -192 48 R0
SYMATTR InstName R7
SYMATTR Value 1k
SYMBOL res -192 240 R0
SYMATTR InstName R8
SYMATTR Value 1k
SYMBOL res 1120 192 R90
WINDOW 0 0 56 VBottom 2
WINDOW 3 32 56 VTop 2
SYMATTR InstName R3
SYMATTR Value 1k
SYMBOL res 1360 304 R90
WINDOW 0 0 56 VBottom 2
WINDOW 3 32 56 VTop 2
SYMATTR InstName R9
SYMATTR Value 1000k
SYMBOL res 1120 -48 R0
SYMATTR InstName R10
SYMATTR Value 2.7k
SYMBOL res 1120 272 R0
SYMATTR InstName R11
SYMATTR Value 2.7k
SYMBOL voltage -496 16 R0
WINDOW 123 0 0 Left 0
WINDOW 39 0 0 Left 0
SYMATTR InstName V3
SYMATTR Value PULSE(0 1 0.1 0.0001 0.0001 0.01 10 1)
SYMBOL res 1280 752 R90
WINDOW 0 0 56 VBottom 2
WINDOW 3 32 56 VTop 2
SYMATTR InstName R12
SYMATTR Value 4.7k
SYMBOL cap 1488 672 R90
WINDOW 0 0 32 VBottom 2
WINDOW 3 32 32 VTop 2
SYMATTR InstName C2
SYMATTR Value 10n
SYMBOL res 1520 576 R90
WINDOW 0 0 56 VBottom 2
WINDOW 3 32 56 VTop 2
SYMATTR InstName R13
SYMATTR Value 10k
SYMBOL res 1120 176 R0
SYMATTR InstName R14
SYMATTR Value 5k
SYMBOL res 432 48 R90
WINDOW 0 0 56 VBottom 2
WINDOW 3 32 56 VTop 2
SYMATTR InstName R15
SYMATTR Value 100
SYMBOL diode 416 80 R270
WINDOW 0 32 32 VTop 2
WINDOW 3 0 32 VBottom 2
SYMATTR InstName D1
SYMBOL OpAmps\\ADTL082 2240 336 R0
SYMATTR InstName U5
SYMBOL OpAmps\\UniversalOpAmp2 1216 -432 R0
SYMATTR InstName U4
SYMATTR Value2 Avol=1Meg GBW=4.5Meg Slew=13000
SYMBOL res 320 896 R90
WINDOW 0 0 56 VBottom 2
WINDOW 3 43 54 VTop 2
SYMATTR InstName R18
SYMATTR Value 10k
SYMBOL cap 480 784 R90
WINDOW 0 0 32 VBottom 2
WINDOW 3 32 32 VTop 2
SYMATTR InstName C3
SYMATTR Value 3µ
SYMBOL npn 512 688 R90
SYMATTR InstName Q1
SYMBOL res 368 960 R0
SYMATTR InstName R17
SYMATTR Value 1k
SYMBOL res 368 848 R0
SYMATTR InstName R19
SYMATTR Value 1k
SYMBOL res 608 0 R0
SYMATTR InstName R20
SYMATTR Value 3k
SYMBOL res 48 192 R90
WINDOW 0 0 56 VBottom 2
WINDOW 3 32 56 VTop 2
SYMATTR InstName R22
SYMATTR Value 10k
SYMBOL OpAmps\\LT1361 384 -560 M180
SYMATTR InstName U6
SYMBOL OpAmps\\LT1361 544 -688 R0
SYMATTR InstName U7
SYMBOL OpAmps\\LT1361 688 -688 R0
SYMATTR InstName U8
SYMBOL OpAmps\\LT1355 1456 -112 R0
SYMATTR InstName U9
SYMBOL OpAmps\\LT1355 1600 -96 R0
SYMATTR InstName U10
SYMBOL OpAmps\\LT1355 1744 -96 R0
SYMATTR InstName U11
SYMBOL PowerProducts\\ADP7102-9.0 -896 -480 R0
SYMATTR InstName U2
SYMBOL PowerProducts\\ADP7102-9.0 -896 -48 R0
SYMATTR InstName U3
SYMBOL PowerProducts\\LT1073-12 -896 720 R0
SYMATTR InstName U12
SYMBOL OpAmps\\LT1354 128 256 M180
SYMATTR InstName U1
SYMBOL OpAmps\\LT1819 160 -1200 R0
SYMATTR InstName U14
SYMBOL OpAmps\\LT1365 528 -1184 R0
SYMATTR InstName U15
SYMBOL OpAmps\\LT1354 720 144 R0
SYMATTR InstName U13
SYMBOL OpAmps\\LT1354 1296 128 R0
SYMATTR InstName U16
SYMBOL OpAmps\\LT1354 1472 720 R0
SYMATTR InstName U17
SYMBOL OpAmps\\LT1354 448 864 R0
SYMATTR InstName U18
SYMBOL res 416 176 M90
WINDOW 0 0 56 VBottom 2
WINDOW 3 32 56 VTop 2
SYMATTR InstName R23
SYMATTR Value 25k
SYMBOL OpAmps\\LT1354 2000 736 R0
SYMATTR InstName U19
SYMBOL OpAmps\\LT1354 976 464 R0
SYMATTR InstName U20
SYMBOL res 2080 640 R90
WINDOW 0 0 56 VBottom 2
WINDOW 3 32 56 VTop 2
SYMATTR InstName R16
SYMATTR Value 2k
SYMBOL res 1920 768 R0
SYMATTR InstName R21
SYMATTR Value 1k
SYMBOL OpAmps\\LT1354 976 144 R0
SYMATTR InstName U21
TEXT 88 328 Left 2 !.tran 0 10ms 0 100n startup
TEXT 144 704 Left 2 !.inc opamp.sub
TEXT 592 368 Left 2 ;PWM geht auch hierrüber
TEXT -1032 896 Left 2 ;Für einen Batteriebetrieb
TEXT 136 512 Left 2 ;.step param rx 1k 10k 1k
TEXT 8 -1392 Left 2 ;Vorhandene Ops
TEXT -432 -872 Left 2 ;brauchbar sind MIC920YC5, LT1819, LT1365. TSH24IDT hat eine etwas niedrige slewrate. Der Rest ist nichr für die hohen Frequenzen ausgelegt.
TEXT 1384 912 Left 2 ;filter ist frequenzabhängig mit poti einstellen
