Version 4.1
SHEET 1 1796 1076
WIRE -176 -48 -496 -48
WIRE 320 -48 80 -48
WIRE 784 -48 400 -48
WIRE 944 -32 944 -48
WIRE -176 16 -336 16
WIRE -496 32 -496 -48
WIRE 80 32 80 -48
WIRE 96 32 80 32
WIRE 288 32 256 32
WIRE 688 32 656 32
WIRE 784 32 784 -48
WIRE 784 32 752 32
WIRE -176 64 -176 16
WIRE -336 112 -336 16
WIRE 544 112 544 -448
WIRE -1056 128 -1056 112
WIRE 80 176 80 32
WIRE 96 176 80 176
WIRE 720 176 720 160
WIRE 944 176 944 48
WIRE 1072 176 944 176
WIRE 160 192 144 192
WIRE 288 192 288 32
WIRE 288 192 160 192
WIRE 336 192 288 192
WIRE 352 192 336 192
WIRE 544 192 432 192
WIRE 656 192 656 32
WIRE 656 192 544 192
WIRE 688 192 656 192
WIRE 944 192 944 176
WIRE 1184 192 1136 192
WIRE 1264 192 1184 192
WIRE 1280 192 1264 192
WIRE -176 208 -176 144
WIRE -96 208 -96 -48
WIRE -96 208 -176 208
WIRE -48 208 -96 208
WIRE 96 208 32 208
WIRE 784 208 784 32
WIRE 784 208 752 208
WIRE 800 208 784 208
WIRE 816 208 800 208
WIRE 832 208 816 208
WIRE 1040 208 912 208
WIRE 1072 208 1040 208
WIRE 1792 208 1696 208
WIRE 688 224 592 224
WIRE -336 240 -336 192
WIRE -336 240 -368 240
WIRE -368 256 -368 240
WIRE -336 256 -336 240
WIRE -176 256 -176 208
WIRE 1792 272 1696 272
WIRE 944 288 944 272
WIRE -1056 304 -1056 208
WIRE 336 304 336 192
WIRE 432 304 400 304
WIRE 544 304 544 192
WIRE 544 304 512 304
WIRE 1040 320 1040 208
WIRE 1072 320 1040 320
WIRE 1184 320 1184 192
WIRE 1184 320 1152 320
WIRE 1792 336 1696 336
WIRE -336 384 -336 336
WIRE -176 384 -176 336
WIRE -176 384 -336 384
WIRE 944 384 944 368
WIRE -1056 416 -1056 384
WIRE 1792 416 1696 416
WIRE -1152 448 -1168 448
WIRE -1024 448 -1056 448
WIRE -1168 496 -1168 448
WIRE -1152 496 -1168 496
WIRE -1024 496 -1024 448
WIRE -1024 496 -1088 496
WIRE 1184 512 1152 512
WIRE -1344 608 -1408 608
WIRE -1168 608 -1168 496
WIRE -1168 608 -1264 608
WIRE -1152 608 -1168 608
WIRE 1072 608 1072 512
WIRE 1184 608 1184 512
WIRE 1184 608 1136 608
WIRE -1024 624 -1024 496
WIRE -1024 624 -1088 624
WIRE -976 624 -1024 624
WIRE -1152 640 -1184 640
WIRE -1184 672 -1184 640
WIRE 800 688 800 208
WIRE 832 688 800 688
WIRE 1072 688 1072 608
WIRE 1072 688 912 688
WIRE 1088 688 1072 688
WIRE 1184 704 1184 608
WIRE 1184 704 1152 704
WIRE 1264 704 1184 704
WIRE 1344 704 1264 704
WIRE 1088 720 1072 720
WIRE 1072 768 1072 720
FLAG -368 256 0
FLAG -336 112 Ub+
FLAG 128 160 Ub-
FLAG 720 160 Ub+
FLAG 128 224 Ub+
FLAG 720 240 Ub-
FLAG 944 -48 Ub+
FLAG 1104 160 Ub+
FLAG 1104 224 Ub-
FLAG 944 384 Ub-
FLAG -336 384 Ub-
FLAG -496 112 0
FLAG 1120 672 Ub+
FLAG 1120 736 Ub-
FLAG 1072 768 0
FLAG -1120 656 Ub+
FLAG -1120 592 Ub-
FLAG -1408 608 Ub+
FLAG 336 192 Rechteck
FLAG 1696 208 Rechteck
FLAG 816 208 Dreieck
FLAG 1696 272 Dreieck
FLAG 1264 192 PWM
FLAG 1696 336 PWM
FLAG 1264 704 Sinus
FLAG 1696 416 Sinus
FLAG -1184 560 Ub+
FLAG -1184 752 0
FLAG -1056 32 Ub+
FLAG -1056 416 Ub-
FLAG 544 -448 0
FLAG 592 224 0
SYMBOL voltage -336 96 R0
SYMATTR InstName V1
SYMATTR Value 9
SYMBOL voltage -336 240 R0
SYMATTR InstName V2
SYMATTR Value 9
SYMBOL res -80 -64 R90
WINDOW 0 0 56 VBottom 2
WINDOW 3 32 56 VTop 2
SYMATTR InstName R1
SYMATTR Value 10k
SYMBOL res 448 176 R90
WINDOW 0 0 56 VBottom 2
WINDOW 3 32 56 VTop 2
SYMATTR InstName R2
SYMATTR Value 10k
SYMBOL cap 752 16 R90
WINDOW 0 0 32 VBottom 2
WINDOW 3 32 32 VTop 2
SYMATTR InstName C1
SYMATTR Value 1n
SYMBOL res 192 16 R90
WINDOW 0 0 56 VBottom 2
WINDOW 3 32 56 VTop 2
SYMATTR InstName R4
SYMATTR Value 12k
SYMBOL res -1072 288 R0
SYMATTR InstName R5
SYMATTR Value 3k
SYMBOL res 416 -64 R90
WINDOW 0 0 56 VBottom 2
WINDOW 3 32 56 VTop 2
SYMATTR InstName R6
SYMATTR Value 4.7k
SYMBOL res -192 48 R0
SYMATTR InstName R7
SYMATTR Value 1k
SYMBOL res -192 240 R0
SYMATTR InstName R8
SYMATTR Value 1k
SYMBOL res 928 192 R90
WINDOW 0 0 56 VBottom 2
WINDOW 3 32 56 VTop 2
SYMATTR InstName R3
SYMATTR Value 33k
SYMBOL res 1168 304 R90
WINDOW 0 0 56 VBottom 2
WINDOW 3 32 56 VTop 2
SYMATTR InstName R9
SYMATTR Value 1000k
SYMBOL res 928 -48 R0
SYMATTR InstName R10
SYMATTR Value 2.7k
SYMBOL res 928 272 R0
SYMATTR InstName R11
SYMATTR Value 2.7k
SYMBOL voltage -496 16 R0
WINDOW 123 0 0 Left 0
WINDOW 39 0 0 Left 0
SYMATTR InstName V3
SYMATTR Value PULSE(0 1 0.1 0.0001 0.0001 0.01 10 1)
SYMBOL res 928 672 R90
WINDOW 0 0 56 VBottom 2
WINDOW 3 32 56 VTop 2
SYMATTR InstName R12
SYMATTR Value 11k
SYMBOL cap 1136 592 R90
WINDOW 0 0 32 VBottom 2
WINDOW 3 32 32 VTop 2
SYMATTR InstName C2
SYMATTR Value 0.4µ
SYMBOL res 1168 496 R90
WINDOW 0 0 56 VBottom 2
WINDOW 3 32 56 VTop 2
SYMATTR InstName R13
SYMATTR Value 10Meg
SYMBOL res 928 176 R0
SYMATTR InstName R14
SYMATTR Value 15k
SYMBOL OpAmps\\ADTL082 1120 640 R0
SYMATTR InstName U5
SYMBOL OpAmps\\UniversalOpAmp2 -1120 624 R0
SYMATTR InstName U4
SYMATTR Value2 Avol=1Meg GBW=4.5Meg Slew=13000
SYMBOL res -1248 592 R90
WINDOW 0 0 56 VBottom 2
WINDOW 3 43 54 VTop 2
SYMATTR InstName R18
SYMATTR Value 10k
SYMBOL cap -1088 480 R90
WINDOW 0 0 32 VBottom 2
WINDOW 3 32 32 VTop 2
SYMATTR InstName C3
SYMATTR Value 3µ
SYMBOL npn -1056 384 R90
SYMATTR InstName Q1
SYMBOL res -1200 656 R0
SYMATTR InstName R17
SYMATTR Value 1k
SYMBOL res -1200 544 R0
SYMATTR InstName R19
SYMATTR Value 1k
SYMBOL res -1072 112 R0
SYMATTR InstName R16
SYMATTR Value 0
SYMBOL res -1072 16 R0
SYMATTR InstName R20
SYMATTR Value 1k
SYMBOL res 272 16 R90
WINDOW 0 0 56 VBottom 2
WINDOW 3 32 56 VTop 2
SYMATTR InstName R21
SYMATTR Value 0
SYMBOL res 48 192 R90
WINDOW 0 0 56 VBottom 2
WINDOW 3 32 56 VTop 2
SYMATTR InstName R22
SYMATTR Value 10k
SYMBOL OpAmps\\LT1361 128 256 M180
SYMATTR InstName U6
SYMBOL OpAmps\\LT1361 720 144 R0
SYMATTR InstName U7
SYMBOL OpAmps\\LT1361 1104 128 R0
SYMATTR InstName U8
SYMBOL OpAmps\\LT1355 1264 -112 R0
SYMATTR InstName U9
SYMBOL OpAmps\\LT1355 1408 -96 R0
SYMATTR InstName U10
SYMBOL OpAmps\\LT1355 1552 -96 R0
SYMATTR InstName U11
SYMBOL diode 336 288 M90
WINDOW 0 0 32 VBottom 2
WINDOW 3 32 32 VTop 2
SYMATTR InstName D1
SYMBOL res 528 288 R90
WINDOW 0 0 56 VBottom 2
WINDOW 3 32 56 VTop 2
SYMATTR InstName R15
SYMATTR Value 100
TEXT -1480 24 Left 2 !.tran 0 10ms 0 0.0001 startup
TEXT -1424 400 Left 2 !.inc opamp.sub
TEXT 592 368 Left 2 ;PWM geht auch hierrüber
